Casos/pglib_opf_case500_goc/datosLineas.csv
fbus;tbus;r;x;b;rateA;rateB;rateC;ratio;angle;status;angmin;angmax;
2;212;0.0154525;0.0792528;0.0268017;239.94;239.94;239.94;0.0;0.0;1;-30.0;30.0;
3;53;0.00358046;0.0258456;0.0131628;260.03;260.03;260.03;0.0;0.0;1;-30.0;30.0;
3;53;0.00358046;0.0258456;0.0131628;260.03;260.03;260.03;0.0;0.0;1;-30.0;30.0;
3;213;0.00319977;0.0219502;0.0125158;256.59;256.59;256.59;0.0;0.0;1;-30.0;30.0;
4;5;0.00696197;0.0360534;0.0111497;218.77;218.77;218.77;0.0;0.0;1;-30.0;30.0;
4;331;0.00775811;0.0380507;0.0134745;227.23;227.23;227.23;0.0;0.0;1;-30.0;30.0;
5;331;0.00487853;0.02675;0.00815727;198.63;198.63;198.63;0.0;0.0;1;-30.0;30.0;
5;351;0.0124676;0.0654224;0.0163807;269.59;269.59;269.59;0.0;0.0;1;-30.0;30.0;
6;331;0.0051151;0.0236629;0.0391647;336.94;336.94;336.94;0.0;0.0;1;-30.0;30.0;
8;461;0.00268087;0.0132507;0.00588479;232.73;232.73;232.73;0.0;0.0;1;-30.0;30.0;
10;11;0.0133436;0.0919039;0.0115271;212.51;212.51;212.51;0.0;0.0;1;-30.0;30.0;
10;406;0.00631471;0.0440302;0.0307124;216.36;216.36;216.36;0.0;0.0;1;-30.0;30.0;
11;58;0.0286556;0.128792;0.0377904;204.21;204.21;204.21;0.0;0.0;1;-30.0;30.0;
12;10;0.00363287;0.0200568;0.0589258;206.37;206.37;206.37;0.0;0.0;1;-30.0;30.0;
12;406;0.00340925;0.0206369;0.0061444;233.32;233.32;233.32;0.0;0.0;1;-30.0;30.0;
13;17;0.0100597;0.0575367;0.0312509;227.86;227.86;227.86;0.0;0.0;1;-30.0;30.0;
14;156;0.00832308;0.0444584;0.0151703;264.27;264.27;264.27;0.0;0.0;1;-30.0;30.0;
15;55;0.0113961;0.0625895;0.0161825;218.52;218.52;218.52;0.0;0.0;1;-30.0;30.0;
16;162;0.012951;0.0665246;0.0176437;224.35;224.35;224.35;0.0;0.0;1;-30.0;30.0;
16;304;0.00759675;0.0410247;0.0264718;236.54;236.54;236.54;0.0;0.0;1;-30.0;30.0;
18;19;0.0106007;0.0397642;0.0085879;245.27;245.27;245.27;0.0;0.0;1;-30.0;30.0;
18;81;0.00978753;0.0448943;0.023169;223.47;223.47;223.47;0.0;0.0;1;-30.0;30.0;
18;310;0.004373;0.0260086;0.0242791;277.5;277.5;277.5;0.0;0.0;1;-30.0;30.0;
18;310;0.004373;0.0260086;0.0242791;277.5;277.5;277.5;0.0;0.0;1;-30.0;30.0;
19;141;0.00579211;0.0290206;0.0189553;251.0;251.0;251.0;0.0;0.0;1;-30.0;30.0;
19;436;0.00397383;0.0271653;0.0337435;212.6;212.6;212.6;0.0;0.0;1;-30.0;30.0;
20;22;0.000207968;0.00111847;0.0;99999.0;99999.0;99999.0;0.0;0.0;1;-30.0;30.0;
21;23;0.00250938;0.0172465;0.0313608;248.08;248.08;248.08;0.0;0.0;1;-30.0;30.0;
22;295;0.0015308;0.016473;0.364525;1075.02;1075.02;1075.02;0.0;0.0;1;-30.0;30.0;
22;405;0.002026;0.028747;1.00897;1001.46;1001.46;1001.46;0.0;0.0;1;-30.0;30.0;
23;179;0.008727;0.054891;0.034891;236.33;236.33;236.33;0.0;0.0;1;-30.0;30.0;
24;4;0.00353554;0.0227525;0.0272812;241.53;241.53;241.53;0.0;0.0;1;-30.0;30.0;
24;56;0.00957472;0.0499942;0.0131242;244.03;244.03;244.03;0.0;0.0;1;-30.0;30.0;
25;27;0.000257042;0.00119754;0.0;99999.0;99999.0;99999.0;0.0;0.0;1;-30.0;30.0;
25;314;0.00158469;0.0214403;0.275456;1151.39;1151.39;1151.39;0.0;0.0;1;-30.0;30.0;
28;29;0.0121765;0.0608641;0.0130017;207.91;207.91;207.91;0.0;0.0;1;-30.0;30.0;
28;30;0.00432531;0.0200998;0.00802657;230.9;230.9;230.9;0.0;0.0;1;-30.0;30.0;
29;356;0.00799791;0.0387782;0.0352203;188.9;188.9;188.9;0.0;0.0;1;-30.0;30.0;
30;26;0.00666488;0.0320152;0.0220243;304.68;304.68;304.68;0.0;0.0;1;-30.0;30.0;
31;228;0.008946;0.057044;0.025829;280.0;280.0;280.0;0.0;0.0;1;-30.0;30.0;
31;296;0.00518286;0.0326049;0.0584572;358.79;358.79;358.79;0.0;0.0;1;-30.0;30.0;
31;415;0.0113363;0.0554702;0.0432148;231.46;231.46;231.46;0.0;0.0;1;-30.0;30.0;
33;32;0.00681448;0.0338755;0.0131701;196.59;196.59;196.59;0.0;0.0;1;-30.0;30.0;
34;33;0.00341126;0.0247052;0.0295283;270.99;270.99;270.99;0.0;0.0;1;-30.0;30.0;
34;33;0.00341126;0.0247052;0.0295283;270.99;270.99;270.99;0.0;0.0;1;-30.0;30.0;
35;40;0.00293506;0.0185201;0.00990083;228.32;228.32;228.32;0.0;0.0;1;-30.0;30.0;
35;42;0.00449505;0.0326042;0.0129473;276.08;276.08;276.08;0.0;0.0;1;-30.0;30.0;
36;2;0.00289863;0.0167658;0.0148842;188.66;188.66;188.66;0.0;0.0;1;-30.0;30.0;
36;33;0.00284038;0.0206656;0.011617;213.45;213.45;213.45;0.0;0.0;0;-30.0;30.0;
37;35;0.00780774;0.0366615;0.0156035;218.76;218.76;218.76;0.0;0.0;1;-30.0;30.0;
37;44;0.00830767;0.0554788;0.0311844;200.99;200.99;200.99;0.0;0.0;1;-30.0;30.0;
38;39;0.00316109;0.0157664;0.019275;252.83;252.83;252.83;0.0;0.0;1;-30.0;30.0;
38;49;0.0106902;0.0689767;0.0297214;204.2;204.2;204.2;0.0;0.0;1;-30.0;30.0;
39;35;0.00384653;0.022595;0.0115165;259.81;259.81;259.81;0.0;0.0;1;-30.0;30.0;
39;35;0.00384653;0.022595;0.0115165;259.81;259.81;259.81;0.0;0.0;1;-30.0;30.0;
39;361;0.00410223;0.0323982;0.0223687;296.76;296.76;296.76;0.0;0.0;1;-30.0;30.0;
39;361;0.00410223;0.0323982;0.0223687;296.76;296.76;296.76;0.0;0.0;1;-30.0;30.0;
39;361;0.00410223;0.0323982;0.0223687;296.76;296.76;296.76;0.0;0.0;0;-30.0;30.0;
41;43;0.000233031;0.00104503;0.0;99999.0;99999.0;99999.0;0.0;0.0;1;-30.0;30.0;
42;40;0.00435644;0.0248836;0.0126137;308.21;308.21;308.21;0.0;0.0;1;-30.0;30.0;
43;54;0.00111725;0.0133249;0.292213;1210.87;1210.87;1210.87;0.0;0.0;1;-30.0;30.0;
43;498;0.00161178;0.0198636;0.286039;1210.03;1210.03;1210.03;0.0;0.0;1;-30.0;30.0;
44;42;0.00483059;0.022229;0.00975406;240.21;240.21;240.21;0.0;0.0;1;-30.0;30.0;
45;36;0.00469767;0.0323288;0.00954514;196.67;196.67;196.67;0.0;0.0;1;-30.0;30.0;
45;37;0.00411194;0.0226471;0.0067485;223.09;223.09;223.09;0.0;0.0;1;-30.0;30.0;
46;45;0.0023403;0.0128024;0.0123531;401.85;401.85;401.85;0.0;0.0;1;-30.0;30.0;
46;50;0.00351582;0.0151322;0.0225659;213.18;213.18;213.18;0.0;0.0;1;-30.0;30.0;
46;51;0.00390017;0.0201794;0.0263679;290.75;290.75;290.75;0.0;0.0;1;-30.0;30.0;
46;51;0.00390017;0.0201794;0.0263679;290.75;290.75;290.75;0.0;0.0;1;-30.0;30.0;
46;214;0.00565635;0.0285577;0.0458282;324.34;324.34;324.34;0.0;0.0;1;-30.0;30.0;
47;40;0.00542345;0.0298445;0.00973297;209.65;209.65;209.65;0.0;0.0;1;-30.0;30.0;
48;50;0.00493315;0.0197057;0.0266381;231.0;231.0;231.0;0.0;0.0;1;-30.0;30.0;
48;480;0.0141266;0.063385;0.013796;270.01;270.01;270.01;0.0;0.0;1;-30.0;30.0;
49;47;0.00274605;0.0168842;0.011861;210.29;210.29;210.29;0.0;0.0;1;-30.0;30.0;
50;49;0.00420333;0.0189576;0.00848235;263.28;263.28;263.28;0.0;0.0;1;-30.0;30.0;
50;51;0.00306979;0.0198041;0.0129611;299.51;299.51;299.51;0.0;0.0;1;-30.0;30.0;
51;48;0.00285314;0.0207706;0.0111933;206.03;206.03;206.03;0.0;0.0;1;-30.0;30.0;
51;70;0.00927047;0.0420854;0.0202396;302.02;302.02;302.02;0.0;0.0;1;-30.0;30.0;
51;357;0.00606199;0.0375019;0.0462067;281.97;281.97;281.97;0.0;0.0;1;-30.0;30.0;
51;357;0.00606199;0.0375019;0.0462067;281.97;281.97;281.97;0.0;0.0;1;-30.0;30.0;
51;357;0.00606199;0.0375019;0.0462067;281.97;281.97;281.97;0.0;0.0;1;-30.0;30.0;
52;54;0.000209023;0.00101092;0.0;99999.0;99999.0;99999.0;0.0;0.0;1;-30.0;30.0;
53;32;0.00540244;0.030335;0.00829098;226.77;226.77;226.77;0.0;0.0;1;-30.0;30.0;
53;36;0.00511899;0.0318872;0.0170703;230.21;230.21;230.21;0.0;0.0;1;-30.0;30.0;
53;45;0.00448796;0.0251172;0.0179586;273.78;273.78;273.78;0.0;0.0;1;-30.0;30.0;
53;45;0.00448796;0.0251172;0.0179586;273.78;273.78;273.78;0.0;0.0;1;-30.0;30.0;
55;72;0.00255071;0.0145816;0.0529998;202.42;202.42;202.42;0.0;0.0;1;-30.0;30.0;
57;66;0.012542;0.0731735;0.0174808;188.33;188.33;188.33;0.0;0.0;1;-30.0;30.0;
57;161;0.0318774;0.176516;0.0907922;198.2;198.2;198.2;0.0;0.0;1;-30.0;30.0;
57;255;0.00718102;0.0390624;0.0537424;300.0;300.0;300.0;0.0;0.0;1;-30.0;30.0;
58;59;0.00838826;0.044004;0.0215912;282.33;282.33;282.33;0.0;0.0;1;-30.0;30.0;
59;179;0.0199692;0.12545;0.0343653;209.05;209.05;209.05;0.0;0.0;1;-30.0;30.0;
60;211;0.0107783;0.0696549;0.0231844;234.89;234.89;234.89;0.0;0.0;1;-30.0;30.0;
61;469;0.00533577;0.0355112;0.0133687;209.34;209.34;209.34;0.0;0.0;1;-30.0;30.0;
62;169;0.0229231;0.141757;0.0331327;284.38;284.38;284.38;0.0;0.0;1;-30.0;30.0;
62;245;0.0171145;0.104922;0.0526062;205.64;205.64;205.64;0.0;0.0;1;-30.0;30.0;
62;271;0.0225085;0.129199;0.0416435;215.63;215.63;215.63;0.0;0.0;1;-30.0;30.0;
63;396;0.00684768;0.035438;0.0555983;276.04;276.04;276.04;0.0;0.0;1;-30.0;30.0;
63;396;0.00684768;0.035438;0.0555983;318.9;318.9;318.9;0.0;0.0;1;-30.0;30.0;
64;308;0.0045429;0.0249656;0.0222506;204.94;204.94;204.94;0.0;0.0;1;-30.0;30.0;
65;118;0.00682259;0.0489818;0.0291852;187.98;187.98;187.98;0.0;0.0;1;-30.0;30.0;
65;122;0.0114556;0.0789436;0.0221672;223.13;223.13;223.13;0.0;0.0;1;-30.0;30.0;
66;180;0.013631;0.0750424;0.0174066;212.27;212.27;212.27;0.0;0.0;1;-30.0;30.0;
67;415;0.0105199;0.0574565;0.0373877;237.15;237.15;237.15;0.0;0.0;1;-30.0;30.0;
68;159;0.00605992;0.0375113;0.0255276;229.73;229.73;229.73;0.0;0.0;1;-30.0;30.0;
68;377;0.00417649;0.0277901;0.0160845;244.32;244.32;244.32;0.0;0.0;1;-30.0;30.0;
69;1;0.0263485;0.135443;0.0504152;230.13;230.13;230.13;0.0;0.0;1;-30.0;30.0;
69;263;0.0303392;0.0797752;0.029101;203.37;203.37;203.37;0.0;0.0;1;-30.0;30.0;
70;357;0.00846265;0.0516422;0.0102433;188.28;188.28;188.28;0.0;0.0;1;-30.0;30.0;
70;480;0.00434341;0.0202377;0.00802619;410.92;410.92;410.92;0.0;0.0;1;-30.0;30.0;
71;6;0.0078159;0.0497093;0.0146629;266.45;266.45;266.45;0.0;0.0;1;-30.0;30.0;
71;236;0.00800132;0.0463031;0.04138;201.33;201.33;201.33;0.0;0.0;1;-30.0;30.0;
72;138;0.00444643;0.0351083;0.0127807;207.55;207.55;207.55;0.0;0.0;1;-30.0;30.0;
73;72;0.00533244;0.0343247;0.0255959;220.8;220.8;220.8;0.0;0.0;1;-30.0;30.0;
73;147;0.00440739;0.0228773;0.164518;299.52;299.52;299.52;0.0;0.0;1;-30.0;30.0;
74;96;0.00818286;0.0350286;0.0519578;247.19;247.19;247.19;0.0;0.0;1;-30.0;30.0;
74;267;0.00959142;0.0610596;0.0235834;231.57;231.57;231.57;0.0;0.0;1;-30.0;30.0;
75;8;0.00464284;0.0333214;0.0209588;200.72;200.72;200.72;0.0;0.0;1;-30.0;30.0;
75;358;0.0102235;0.0653;0.0229694;188.8;188.8;188.8;0.0;0.0;1;-30.0;30.0;
76;87;0.00734959;0.0479733;0.0311735;229.57;229.57;229.57;0.0;0.0;1;-30.0;30.0;
76;98;0.00991719;0.0433979;0.0140715;204.48;204.48;204.48;0.0;0.0;1;-30.0;30.0;
77;79;0.00410741;0.0215648;0.0277571;211.27;211.27;211.27;0.0;0.0;1;-30.0;30.0;
77;107;0.0117458;0.0474083;0.0162089;218.26;218.26;218.26;0.0;0.0;1;-30.0;30.0;
78;107;0.0111029;0.0647119;0.0107653;206.24;206.24;206.24;0.0;0.0;1;-30.0;30.0;
78;175;1e-07;0.03;0.0;99999.0;99999.0;99999.0;0.0;0.0;1;-30.0;30.0;
79;78;0.00255254;0.0159622;0.00899812;203.0;203.0;203.0;0.0;0.0;1;-30.0;30.0;
79;107;0.00331842;0.0132353;0.0146141;250.46;250.46;250.46;0.0;0.0;1;-30.0;30.0;
80;348;0.00704419;0.0429071;0.0164992;208.58;208.58;208.58;0.0;0.0;1;-30.0;30.0;
81;83;0.00531978;0.0288681;0.0129334;207.61;207.61;207.61;0.0;0.0;1;-30.0;30.0;
81;166;0.00541342;0.0336256;0.0795896;293.17;293.17;293.17;0.0;0.0;1;-30.0;30.0;
81;229;0.00312946;0.0211726;0.124132;215.36;215.36;215.36;0.0;0.0;1;-30.0;30.0;
82;266;0.0114333;0.0592337;0.0223159;204.89;204.89;204.89;0.0;0.0;1;-30.0;30.0;
82;310;0.0131116;0.0919649;0.0333501;257.15;257.15;257.15;0.0;0.0;1;-30.0;30.0;
83;430;0.0054217;0.0345595;0.00848049;222.55;222.55;222.55;0.0;0.0;1;-30.0;30.0;
84;139;0.00435711;0.0190405;0.0137408;210.32;210.32;210.32;0.0;0.0;1;-30.0;30.0;
84;195;0.00929083;0.0588771;0.0219609;259.57;259.57;259.57;0.0;0.0;1;-30.0;30.0;
84;195;0.00929083;0.0588771;0.0219609;259.57;259.57;259.57;0.0;0.0;1;-30.0;30.0;
84;266;0.00501492;0.0413843;0.0291757;246.13;246.13;246.13;0.0;0.0;1;-30.0;30.0;
84;436;0.00700667;0.0414708;0.015102;258.28;258.28;258.28;0.0;0.0;1;-30.0;30.0;
85;161;0.00894783;0.0484215;0.0154075;177.52;177.52;177.52;0.0;0.0;1;-30.0;30.0;
86;91;0.00643134;0.0345851;0.0231473;223.14;223.14;223.14;0.0;0.0;1;-30.0;30.0;
87;86;0.00619339;0.0427095;0.00952131;237.28;237.28;237.28;0.0;0.0;1;-30.0;30.0;
87;89;0.00793475;0.0435997;0.0184649;258.25;258.25;258.25;0.0;0.0;1;-30.0;30.0;
87;274;0.0196035;0.0686154;0.0349382;292.99;292.99;292.99;0.0;0.0;1;-30.0;30.0;
87;274;0.0196035;0.0686154;0.0349382;292.99;292.99;292.99;0.0;0.0;1;-30.0;30.0;
88;86;0.00619872;0.0363008;0.0141733;239.42;239.42;239.42;0.0;0.0;1;-30.0;30.0;
89;91;0.00819369;0.0464744;0.00929417;259.02;259.02;259.02;0.0;0.0;1;-30.0;30.0;
90;92;0.000270441;0.00111124;0.0;99999.0;99999.0;99999.0;0.0;0.0;1;-30.0;30.0;
90;273;0.00115634;0.013527;0.194866;1462.73;1462.73;1462.73;0.0;0.0;1;-30.0;30.0;
91;143;0.00923127;0.055819;0.0278186;236.4;236.4;236.4;0.0;0.0;1;-30.0;30.0;
94;239;0.00830591;0.0293227;0.00963458;256.91;256.91;256.91;0.0;0.0;1;-30.0;30.0;
95;100;0.00486868;0.0263368;0.0205417;208.4;208.4;208.4;0.0;0.0;1;-30.0;30.0;
95;205;0.0121886;0.0614622;0.0273777;174.34;174.34;174.34;0.0;0.0;1;-30.0;30.0;
97;90;0.00120165;0.0138189;0.259737;1139.35;1139.35;1139.35;0.0;0.0;1;-30.0;30.0;
97;99;0.000275423;0.00105221;0.0;99999.0;99999.0;99999.0;0.0;0.0;1;-30.0;30.0;
97;273;0.00243082;0.0302411;0.519784;1267.29;1267.29;1267.29;0.0;0.0;1;-30.0;30.0;
97;405;0.00207844;0.0243675;0.524041;1074.6;1074.6;1074.6;0.0;0.0;1;-30.0;30.0;
98;101;0.00804282;0.0445249;0.0172134;306.67;306.67;306.67;0.0;0.0;1;-30.0;30.0;
100;101;0.00296664;0.0146402;0.0208753;253.07;253.07;253.07;0.0;0.0;1;-30.0;30.0;
101;126;0.0135607;0.0668913;0.0172284;191.2;191.2;191.2;0.0;0.0;1;-30.0;30.0;
102;69;0.00789353;0.0491556;0.052004;227.8;227.8;227.8;0.0;0.0;1;-30.0;30.0;
102;103;0.00616992;0.040555;0.0247805;209.35;209.35;209.35;0.0;0.0;1;-30.0;30.0;
103;219;0.0165793;0.0810327;0.0235267;219.57;219.57;219.57;0.0;0.0;1;-30.0;30.0;
103;376;0.00542668;0.0326243;0.0184557;224.43;224.43;224.43;0.0;0.0;1;-30.0;30.0;
104;9;0.0120051;0.0621569;0.0229572;191.72;191.72;191.72;0.0;0.0;1;-30.0;30.0;
104;163;0.0181989;0.10493;0.0417728;244.46;244.46;244.46;0.0;0.0;1;-30.0;30.0;
104;226;0.0129352;0.086119;0.0522159;196.78;196.78;196.78;0.0;0.0;1;-30.0;30.0;
105;58;0.0099657;0.0594587;0.0230392;201.82;201.82;201.82;0.0;0.0;1;-30.0;30.0;
105;399;0.028421;0.116472;0.031104;224.0;224.0;224.0;0.0;0.0;1;-30.0;30.0;
106;108;0.000297923;0.00115791;0.0;99999.0;99999.0;99999.0;0.0;0.0;1;-30.0;30.0;
107;206;0.00809361;0.0597339;0.0473542;238.35;238.35;238.35;0.0;0.0;1;-30.0;30.0;
108;414;0.00172335;0.0206772;0.504555;1228.85;1228.85;1228.85;0.0;0.0;1;-30.0;30.0;
109;200;0.0203907;0.118914;0.0276247;220.15;220.15;220.15;0.0;0.0;1;-30.0;30.0;
110;196;0.0042827;0.0235603;0.0191082;216.49;216.49;216.49;0.0;0.0;1;-30.0;30.0;
110;398;0.00483279;0.0258082;0.0159547;252.34;252.34;252.34;0.0;0.0;1;-30.0;30.0;
111;196;0.00542194;0.0344726;0.0102377;214.05;214.05;214.05;0.0;0.0;1;-30.0;30.0;
112;423;0.00423329;0.0285922;0.0763694;249.73;249.73;249.73;0.0;0.0;1;-30.0;30.0;
113;260;0.00834035;0.0512955;0.0347496;202.53;202.53;202.53;0.0;0.0;1;-30.0;30.0;
113;398;0.00663848;0.0305149;0.0128669;227.33;227.33;227.33;0.0;0.0;1;-30.0;30.0;
114;111;0.00910642;0.0400126;0.0159566;208.23;208.23;208.23;0.0;0.0;1;-30.0;30.0;
114;398;0.0120679;0.061943;0.023604;226.07;226.07;226.07;0.0;0.0;1;-30.0;30.0;
115;77;0.00411865;0.0255403;0.0178958;230.62;230.62;230.62;0.0;0.0;1;-30.0;30.0;
115;131;0.00819163;0.0553686;0.0263614;218.92;218.92;218.92;0.0;0.0;1;-30.0;30.0;
115;228;0.0126336;0.0592473;0.0119379;217.39;217.39;217.39;0.0;0.0;1;-30.0;30.0;
116;206;0.00973095;0.0504602;0.019357;222.37;222.37;222.37;0.0;0.0;1;-30.0;30.0;
117;217;0.00511447;0.0253149;0.10592;223.26;223.26;223.26;0.0;0.0;1;-30.0;30.0;
119;121;0.000242957;0.0011457;0.0;99999.0;99999.0;99999.0;0.0;0.0;1;-30.0;30.0;
120;477;0.00424349;0.0233087;0.157389;190.09;190.09;190.09;0.0;0.0;1;-30.0;30.0;
121;151;0.00155598;0.0200038;0.655713;1248.37;1248.37;1248.37;0.0;0.0;1;-30.0;30.0;
122;477;0.00591039;0.0286753;0.0112938;248.26;248.26;248.26;0.0;0.0;1;-30.0;30.0;
124;24;0.00552089;0.0312098;0.0117206;322.21;322.21;322.21;0.0;0.0;1;-30.0;30.0;
124;122;0.00616606;0.0403861;0.0183176;295.24;295.24;295.24;0.0;0.0;1;-30.0;30.0;
125;333;0.00816597;0.0423005;0.0261657;268.04;268.04;268.04;0.0;0.0;1;-30.0;30.0;
125;453;0.00365157;0.0256689;0.0121744;199.42;199.42;199.42;0.0;0.0;1;-30.0;30.0;
127;9;0.00947342;0.0740918;0.0278587;162.26;162.26;162.26;0.0;0.0;1;-30.0;30.0;
128;142;0.0176946;0.0991166;0.0248442;180.09;180.09;180.09;0.0;0.0;1;-30.0;30.0;
128;164;0.00911283;0.0650041;0.0205367;212.74;212.74;212.74;0.0;0.0;1;-30.0;30.0;
129;128;0.00489014;0.0292388;0.0244841;225.74;225.74;225.74;0.0;0.0;1;-30.0;30.0;
129;399;0.0189658;0.0973849;0.0559229;249.6;249.6;249.6;0.0;0.0;1;-30.0;30.0;
130;179;1e-07;0.025;0.0;99999.0;99999.0;99999.0;0.0;0.0;1;-30.0;30.0;
130;294;0.0131769;0.082029;0.0245782;185.8;185.8;185.8;0.0;0.0;1;-30.0;30.0;
131;116;0.00549552;0.0341954;0.0146232;201.28;201.28;201.28;0.0;0.0;1;-30.0;30.0;
132;93;0.00992821;0.0644466;0.0264679;208.47;208.47;208.47;0.0;0.0;1;-30.0;30.0;
132;133;0.00732507;0.0373195;0.0248695;232.81;232.81;232.81;0.0;0.0;1;-30.0;30.0;
134;136;0.0102307;0.0477176;0.0187308;207.6;207.6;207.6;0.0;0.0;1;-30.0;30.0;
135;137;0.000229847;0.00116435;0.0;99999.0;99999.0;99999.0;0.0;0.0;1;-30.0;30.0;
135;422;0.00235893;0.024726;0.469035;1189.63;1189.63;1189.63;0.0;0.0;1;-30.0;30.0;
136;241;0.0112916;0.0732581;0.0317038;214.72;214.72;214.72;0.0;0.0;1;-30.0;30.0;
136;269;0.0071981;0.0545129;0.0288407;260.65;260.65;260.65;0.0;0.0;1;-30.0;30.0;
136;269;0.0071981;0.0545129;0.0288407;260.65;260.65;260.65;0.0;0.0;0;-30.0;30.0;
138;267;0.0137642;0.0640674;0.014872;191.13;191.13;191.13;0.0;0.0;1;-30.0;30.0;
139;266;0.00742239;0.0413065;0.0163907;235.23;235.23;235.23;0.0;0.0;1;-30.0;30.0;
139;436;0.0061483;0.0314653;0.0353002;285.59;285.59;285.59;0.0;0.0;1;-30.0;30.0;
140;141;0.00437587;0.0295663;0.00682313;226.66;226.66;226.66;0.0;0.0;1;-30.0;30.0;
141;149;0.00858313;0.0511386;0.0129799;237.21;237.21;237.21;0.0;0.0;1;-30.0;30.0;
141;154;0.00987958;0.0590507;0.0246559;232.93;232.93;232.93;0.0;0.0;1;-30.0;30.0;
141;165;0.00346348;0.0216104;0.0227149;189.3;189.3;189.3;0.0;0.0;1;-30.0;30.0;
141;166;0.00092095;0.00500518;0.0187787;262.31;262.31;262.31;0.0;0.0;1;-30.0;30.0;
141;166;0.00092095;0.00500518;0.0187787;262.31;262.31;262.31;0.0;0.0;1;-30.0;30.0;
141;436;0.00495754;0.0288767;0.0446069;306.09;306.09;306.09;0.0;0.0;1;-30.0;30.0;
141;436;0.00495754;0.0288767;0.0446069;306.09;306.09;306.09;0.0;0.0;1;-30.0;30.0;
141;436;0.00495754;0.0288767;0.0446069;306.09;306.09;306.09;0.0;0.0;1;-30.0;30.0;
142;366;0.0117749;0.0695592;0.0171149;206.18;206.18;206.18;0.0;0.0;1;-30.0;30.0;
143;89;0.00782994;0.0336108;0.0263321;214.33;214.33;214.33;0.0;0.0;1;-30.0;30.0;
144;14;0.00900802;0.0615875;0.019763;203.73;203.73;203.73;0.0;0.0;1;-30.0;30.0;
144;270;0.0161384;0.0861978;0.0309127;220.79;220.79;220.79;0.0;0.0;1;-30.0;30.0;
145;3;0.00353908;0.0187394;0.0133873;213.82;213.82;213.82;0.0;0.0;1;-30.0;30.0;
145;32;0.00592829;0.0364587;0.0146815;203.9;203.9;203.9;0.0;0.0;1;-30.0;30.0;
146;147;0.00508514;0.0390637;0.0127711;228.21;228.21;228.21;0.0;0.0;1;-30.0;30.0;
147;148;0.0054055;0.0355367;0.00942939;247.66;247.66;247.66;0.0;0.0;1;-30.0;30.0;
148;146;0.00539343;0.0250755;0.015923;211.0;211.0;211.0;0.0;0.0;1;-30.0;30.0;
148;166;0.00477032;0.0295611;0.0527909;261.82;261.82;261.82;0.0;0.0;1;-30.0;30.0;
148;166;0.00477032;0.0295611;0.0527909;261.82;261.82;261.82;0.0;0.0;1;-30.0;30.0;
149;146;0.0128452;0.0364985;0.00708579;176.91;176.91;176.91;0.0;0.0;1;-30.0;30.0;
150;146;0.00573662;0.0370925;0.00906798;231.51;231.51;231.51;0.0;0.0;1;-30.0;30.0;
150;152;0.00272594;0.0179578;0.013011;264.24;264.24;264.24;0.0;0.0;1;-30.0;30.0;
150;152;0.00272594;0.0179578;0.013011;264.24;264.24;264.24;0.0;0.0;1;-30.0;30.0;
151;153;0.000216168;0.00101369;0.0;99999.0;99999.0;99999.0;0.0;0.0;1;-30.0;30.0;
151;309;0.00157454;0.0168171;0.474329;1273.32;1273.32;1273.32;0.0;0.0;1;-30.0;30.0;
151;429;0.00179475;0.0239725;0.307853;1129.32;1129.32;1129.32;0.0;0.0;1;-30.0;30.0;
151;435;0.00133646;0.0166752;0.333178;1140.95;1140.95;1140.95;0.0;0.0;1;-30.0;30.0;
152;155;0.00812632;0.0501842;0.00786791;218.33;218.33;218.33;0.0;0.0;1;-30.0;30.0;
154;152;0.00278017;0.0178012;0.00801273;253.55;253.55;253.55;0.0;0.0;1;-30.0;30.0;
154;198;0.00444159;0.0216831;0.0136503;230.23;230.23;230.23;0.0;0.0;1;-30.0;30.0;
155;154;0.00384809;0.0206545;0.00841861;204.11;204.11;204.11;0.0;0.0;1;-30.0;30.0;
157;158;0.00833276;0.0618383;0.0168817;189.98;189.98;189.98;0.0;0.0;1;-30.0;30.0;
158;93;0.0150498;0.0753739;0.0264057;237.8;237.8;237.8;0.0;0.0;1;-30.0;30.0;
159;404;0.00958039;0.0443493;0.0256151;189.56;189.56;189.56;0.0;0.0;1;-30.0;30.0;
160;215;0.00639018;0.0378575;0.0183732;276.26;276.26;276.26;0.0;0.0;1;-30.0;30.0;
160;215;0.00639018;0.0378575;0.0183732;276.26;276.26;276.26;0.0;0.0;1;-30.0;30.0;
160;455;0.00570318;0.0279867;0.0107857;286.46;286.46;286.46;0.0;0.0;1;-30.0;30.0;
160;455;0.00570318;0.0279867;0.0107857;286.46;286.46;286.46;0.0;0.0;1;-30.0;30.0;
160;455;0.00570318;0.0279867;0.0107857;286.46;286.46;286.46;0.0;0.0;1;-30.0;30.0;
163;271;0.0114438;0.0436005;0.0346998;179.05;179.05;179.05;0.0;0.0;1;-30.0;30.0;
163;373;0.0118044;0.070336;0.0200369;297.95;297.95;297.95;0.0;0.0;1;-30.0;30.0;
164;248;0.0166592;0.0789746;0.0332218;180.39;180.39;180.39;0.0;0.0;1;-30.0;30.0;
165;83;0.00626026;0.0354394;0.0366867;234.49;234.49;234.49;0.0;0.0;1;-30.0;30.0;
166;140;0.00731424;0.0226116;0.00854781;225.55;225.55;225.55;0.0;0.0;1;-30.0;30.0;
167;57;0.010917;0.0509877;0.02854;235.27;235.27;235.27;0.0;0.0;1;-30.0;30.0;
167;237;0.00858763;0.0514933;0.0327973;277.5;277.5;277.5;0.0;0.0;1;-30.0;30.0;
167;308;0.015381;0.105892;0.094777;137.16;137.16;137.16;0.0;0.0;1;-30.0;30.0;
169;294;0.0159265;0.106886;0.0530111;360.35;360.35;360.35;0.0;0.0;1;-30.0;30.0;
170;279;0.00303492;0.0181342;0.00534882;241.25;241.25;241.25;0.0;0.0;1;-30.0;30.0;
171;174;0.00224797;0.011615;0.0142829;208.34;208.34;208.34;0.0;0.0;1;-30.0;30.0;
171;175;0.00496535;0.0237746;0.00763631;179.76;179.76;179.76;0.0;0.0;1;-30.0;30.0;
171;178;0.00957175;0.0508253;0.010821;280.01;280.01;280.01;0.0;0.0;1;-30.0;30.0;
171;178;0.00957175;0.0508253;0.010821;280.01;280.01;280.01;0.0;0.0;1;-30.0;30.0;
171;232;0.00222237;0.0159047;0.0600656;396.42;396.42;396.42;0.0;0.0;1;-30.0;30.0;
171;232;0.00222237;0.0159047;0.0600656;396.42;396.42;396.42;0.0;0.0;1;-30.0;30.0;
171;279;0.0109431;0.0419533;0.0211437;210.57;210.57;210.57;0.0;0.0;1;-30.0;30.0;
172;173;0.00554268;0.0252059;0.011282;208.34;208.34;208.34;0.0;0.0;1;-30.0;30.0;
174;170;0.00383353;0.0223464;0.0194664;192.65;192.65;192.65;0.0;0.0;1;-30.0;30.0;
174;495;0.00535203;0.0300593;0.0221523;228.14;228.14;228.14;0.0;0.0;1;-30.0;30.0;
175;234;0.00354887;0.0176835;0.0203663;183.22;183.22;183.22;0.0;0.0;1;-30.0;30.0;
175;495;0.001843;0.011985;0.004183;280.0;280.0;280.0;0.0;0.0;1;-30.0;30.0;
176;177;0.00359841;0.0241809;0.0123395;202.57;202.57;202.57;0.0;0.0;1;-30.0;30.0;
176;244;0.00628574;0.034737;0.0187055;300.0;300.0;300.0;0.0;0.0;1;-30.0;30.0;
177;173;0.00402863;0.0256745;0.0229296;178.8;178.8;178.8;0.0;0.0;1;-30.0;30.0;
177;491;0.00752468;0.0520976;0.0339664;216.78;216.78;216.78;0.0;0.0;1;-30.0;30.0;
178;177;0.00535238;0.0363989;0.00997157;225.46;225.46;225.46;0.0;0.0;1;-30.0;30.0;
180;63;0.00890202;0.0408484;0.0196852;260.07;260.07;260.07;0.0;0.0;1;-30.0;30.0;
180;63;0.00890202;0.0408484;0.0196852;260.07;260.07;260.07;0.0;0.0;1;-30.0;30.0;
181;168;0.0097017;0.0576871;0.0204621;222.72;222.72;222.72;0.0;0.0;1;-30.0;30.0;
181;180;0.00440478;0.0242077;0.0283171;247.75;247.75;247.75;0.0;0.0;1;-30.0;30.0;
182;185;0.00171453;0.00889045;0.0238406;398.72;398.72;398.72;0.0;0.0;1;-30.0;30.0;
183;193;0.00524827;0.0315915;0.0127134;194.36;194.36;194.36;0.0;0.0;1;-30.0;30.0;
183;348;0.00555018;0.0391876;0.0158808;245.54;245.54;245.54;0.0;0.0;1;-30.0;30.0;
184;187;0.00220879;0.0126244;0.0239407;169.83;169.83;169.83;0.0;0.0;1;-30.0;30.0;
184;191;0.00478016;0.0306107;0.0103495;239.33;239.33;239.33;0.0;0.0;1;-30.0;30.0;
185;187;0.00395185;0.0294432;0.00874079;296.9;296.9;296.9;0.0;0.0;1;-30.0;30.0;
186;184;0.00543965;0.035961;0.00847875;198.79;198.79;198.79;0.0;0.0;1;-30.0;30.0;
186;191;0.00711793;0.0407855;0.0196479;238.6;238.6;238.6;0.0;0.0;1;-30.0;30.0;
186;250;0.0104701;0.0582718;0.048083;207.78;207.78;207.78;0.0;0.0;1;-30.0;30.0;
187;191;0.00844667;0.0413005;0.0180251;229.27;229.27;229.27;0.0;0.0;1;-30.0;30.0;
189;188;0.00571546;0.0332658;0.0128996;234.79;234.79;234.79;0.0;0.0;1;-30.0;30.0;
190;25;0.00209646;0.0245254;0.404187;990.64;990.64;990.64;0.0;0.0;1;-30.0;30.0;
190;97;0.00317752;0.0363667;1.1004;1250.08;1250.08;1250.08;0.0;0.0;1;-30.0;30.0;
190;192;0.000222942;0.00103575;0.0;99999.0;99999.0;99999.0;0.0;0.0;1;-30.0;30.0;
190;349;0.000908512;0.0109152;0.338099;1151.32;1151.32;1151.32;0.0;0.0;1;-30.0;30.0;
191;188;0.00296045;0.024531;0.0147562;270.38;270.38;270.38;0.0;0.0;1;-30.0;30.0;
193;189;0.00178101;0.01297;0.0176216;211.99;211.99;211.99;0.0;0.0;1;-30.0;30.0;
194;251;0.00320622;0.0167087;0.0270856;203.61;203.61;203.61;0.0;0.0;1;-30.0;30.0;
195;133;0.00525408;0.0402405;0.015266;243.41;243.41;243.41;0.0;0.0;1;-30.0;30.0;
196;112;0.00489394;0.0289436;0.0102925;204.1;204.1;204.1;0.0;0.0;1;-30.0;30.0;
196;247;0.00697417;0.0300478;0.0407165;202.16;202.16;202.16;0.0;0.0;1;-30.0;30.0;
197;157;0.00801611;0.0516806;0.012499;215.69;215.69;215.69;0.0;0.0;1;-30.0;30.0;
198;246;0.00525429;0.0413684;0.0226617;206.22;206.22;206.22;0.0;0.0;1;-30.0;30.0;
199;200;0.0105279;0.0441567;0.00913296;175.31;175.31;175.31;0.0;0.0;1;-30.0;30.0;
199;253;0.00802037;0.0312808;0.0240349;229.5;229.5;229.5;0.0;0.0;1;-30.0;30.0;
201;251;0.00693842;0.039204;0.016375;195.17;195.17;195.17;0.0;0.0;1;-30.0;30.0;
202;17;0.00698383;0.0389556;0.0204675;212.55;212.55;212.55;0.0;0.0;1;-30.0;30.0;
202;56;0.00783489;0.0459576;0.0268466;225.33;225.33;225.33;0.0;0.0;1;-30.0;30.0;
202;201;0.00386324;0.0244623;0.0327491;214.07;214.07;214.07;0.0;0.0;1;-30.0;30.0;
203;315;0.0103589;0.0592801;0.0362542;233.29;233.29;233.29;0.0;0.0;1;-30.0;30.0;
204;28;0.00794312;0.0448473;0.0182823;234.14;234.14;234.14;0.0;0.0;1;-30.0;30.0;
204;315;0.00244174;0.0174811;0.0619636;285.99;285.99;285.99;0.0;0.0;1;-30.0;30.0;
205;12;0.00840117;0.0498614;0.0388297;215.93;215.93;215.93;0.0;0.0;1;-30.0;30.0;
207;148;0.0053507;0.0312066;0.0405506;203.6;203.6;203.6;0.0;0.0;1;-30.0;30.0;
207;152;0.00615042;0.0311668;0.0339339;242.73;242.73;242.73;0.0;0.0;1;-30.0;30.0;
208;162;0.00898155;0.0568121;0.0134563;212.29;212.29;212.29;0.0;0.0;1;-30.0;30.0;
208;209;0.00627626;0.0374794;0.0230329;183.56;183.56;183.56;0.0;0.0;1;-30.0;30.0;
209;13;0.00943909;0.0454807;0.0169332;217.38;217.38;217.38;0.0;0.0;1;-30.0;30.0;
209;14;0.00570445;0.0270742;0.030888;317.31;317.31;317.31;0.0;0.0;1;-30.0;30.0;
209;455;0.00840723;0.0448826;0.00717159;278.5;278.5;278.5;0.0;0.0;1;-30.0;30.0;
209;455;0.00840723;0.0448826;0.00717159;293.27;293.27;293.27;0.0;0.0;1;-30.0;30.0;
210;1;0.0152392;0.0698575;0.0274213;240.59;240.59;240.59;0.0;0.0;1;-30.0;30.0;
210;89;0.00397244;0.0264208;0.0601697;281.44;281.44;281.44;0.0;0.0;1;-30.0;30.0;
210;89;0.00397244;0.0264208;0.0601697;281.44;281.44;281.44;0.0;0.0;1;-30.0;30.0;
211;210;0.00758494;0.044758;0.0124403;253.6;253.6;253.6;0.0;0.0;1;-30.0;30.0;
212;447;0.00178893;0.0102128;0.00484733;258.64;258.64;258.64;0.0;0.0;1;-30.0;30.0;
213;214;0.0037451;0.0228728;0.00968813;225.25;225.25;225.25;0.0;0.0;1;-30.0;30.0;
215;251;0.0117409;0.0605448;0.0286688;263.99;263.99;263.99;0.0;0.0;1;-30.0;30.0;
215;251;0.0117409;0.0605448;0.0286688;263.99;263.99;263.99;0.0;0.0;1;-30.0;30.0;
216;194;0.00578304;0.0374928;0.0192971;210.35;210.35;210.35;0.0;0.0;1;-30.0;30.0;
216;441;0.00312727;0.0208103;0.0063307;240.31;240.31;240.31;0.0;0.0;1;-30.0;30.0;
217;421;0.00241219;0.0167;0.00633253;201.29;201.29;201.29;0.0;0.0;1;-30.0;30.0;
218;219;0.00857311;0.0551647;0.00894048;230.47;230.47;230.47;0.0;0.0;1;-30.0;30.0;
218;382;0.0100784;0.0375967;0.026455;258.56;258.56;258.56;0.0;0.0;1;-30.0;30.0;
220;315;0.00355893;0.0263302;0.0300112;205.61;205.61;205.61;0.0;0.0;1;-30.0;30.0;
221;123;0.0104335;0.060538;0.0170116;229.04;229.04;229.04;0.0;0.0;1;-30.0;30.0;
221;156;0.0117053;0.0572478;0.018905;203.37;203.37;203.37;0.0;0.0;1;-30.0;30.0;
222;42;0.00411476;0.0259096;0.0187635;249.24;249.24;249.24;0.0;0.0;1;-30.0;30.0;
223;224;0.00588657;0.037647;0.0212807;231.09;231.09;231.09;0.0;0.0;1;-30.0;30.0;
223;277;0.00714704;0.0436408;0.0180894;185.01;185.01;185.01;0.0;0.0;1;-30.0;30.0;
224;377;0.00785703;0.0528241;0.0173832;282.56;282.56;282.56;0.0;0.0;1;-30.0;30.0;
225;134;0.0197772;0.0945552;0.0218207;171.8;171.8;171.8;0.0;0.0;1;-30.0;30.0;
225;230;0.0136298;0.0724565;0.0137919;189.22;189.22;189.22;0.0;0.0;1;-30.0;30.0;
226;127;0.00636651;0.039434;0.0364845;228.48;228.48;228.48;0.0;0.0;1;-30.0;30.0;
227;304;0.0209617;0.0768189;0.0265371;223.43;223.43;223.43;0.0;0.0;1;-30.0;30.0;
228;77;0.0100973;0.0519099;0.0122713;200.25;200.25;200.25;0.0;0.0;1;-30.0;30.0;
230;261;0.0117979;0.051572;0.0271212;208.52;208.52;208.52;0.0;0.0;1;-30.0;30.0;
231;233;0.000254732;0.00110199;0.0;99999.0;99999.0;99999.0;0.0;0.0;1;-30.0;30.0;
231;278;0.00109778;0.0135445;0.17031;1115.46;1115.46;1115.46;0.0;0.0;1;-30.0;30.0;
232;94;0.00860686;0.0347308;0.0220854;246.21;246.21;246.21;0.0;0.0;1;-30.0;30.0;
232;234;0.00531952;0.0318575;0.00762114;235.64;235.64;235.64;0.0;0.0;1;-30.0;30.0;
232;296;0.00549162;0.0301785;0.0225615;478.99;478.99;478.99;0.0;0.0;1;-30.0;30.0;
232;296;0.00549162;0.0301785;0.0225615;478.99;478.99;478.99;0.0;0.0;1;-30.0;30.0;
232;495;0.00447264;0.0252841;0.0147161;209.35;209.35;209.35;0.0;0.0;1;-30.0;30.0;
234;94;0.00271156;0.0161032;0.0160785;230.93;230.93;230.93;0.0;0.0;1;-30.0;30.0;
235;306;0.00812201;0.0472273;0.0137623;218.26;218.26;218.26;0.0;0.0;1;-30.0;30.0;
237;238;0.00606403;0.0337143;0.0236608;323.04;323.04;323.04;0.0;0.0;1;-30.0;30.0;
238;359;0.0073114;0.0365176;0.0280548;276.53;276.53;276.53;0.0;0.0;1;-30.0;30.0;
238;359;0.0073114;0.0365176;0.0280548;276.53;276.53;276.53;0.0;0.0;1;-30.0;30.0;
239;67;0.0158524;0.108623;0.0182117;223.35;223.35;223.35;0.0;0.0;1;-30.0;30.0;
239;172;0.00344576;0.0203593;0.00970442;240.06;240.06;240.06;0.0;0.0;1;-30.0;30.0;
240;88;0.0134858;0.0625222;0.0111221;216.49;216.49;216.49;0.0;0.0;1;-30.0;30.0;
240;126;0.0118939;0.0722295;0.0232966;187.85;187.85;187.85;0.0;0.0;1;-30.0;30.0;
242;243;0.0138258;0.0785427;0.0193021;174.9;174.9;174.9;0.0;0.0;1;-30.0;30.0;
243;160;0.0086236;0.0391769;0.0275199;239.47;239.47;239.47;0.0;0.0;1;-30.0;30.0;
244;279;0.0158341;0.0518919;0.0125865;249.79;249.79;249.79;0.0;0.0;1;-30.0;30.0;
244;491;0.00321432;0.0232783;0.00727573;216.6;216.6;216.6;0.0;0.0;1;-30.0;30.0;
246;140;0.00621165;0.0353944;0.0160529;232.44;232.44;232.44;0.0;0.0;1;-30.0;30.0;
247;133;1e-07;0.059;0.0;99999.0;99999.0;99999.0;0.0;0.0;1;-30.0;30.0;
247;387;0.0108557;0.0767928;0.00935552;221.11;221.11;221.11;0.0;0.0;1;-30.0;30.0;
248;60;0.00948303;0.0543826;0.00864013;219.42;219.42;219.42;0.0;0.0;1;-30.0;30.0;
249;248;0.00655432;0.0433484;0.0154156;199.4;199.4;199.4;0.0;0.0;1;-30.0;30.0;
250;249;0.00370925;0.0227163;0.0361231;191.18;191.18;191.18;0.0;0.0;1;-30.0;30.0;
251;222;0.00450654;0.0273755;0.0272315;217.96;217.96;217.96;0.0;0.0;1;-30.0;30.0;
252;254;0.000254254;0.00117123;0.0;99999.0;99999.0;99999.0;0.0;0.0;1;-30.0;30.0;
252;322;0.00190519;0.0220599;0.46598;1234.69;1234.69;1234.69;0.0;0.0;1;-30.0;30.0;
252;360;0.00165756;0.0183628;0.575877;1049.65;1049.65;1049.65;0.0;0.0;1;-30.0;30.0;
253;257;0.00690278;0.0371656;0.00999364;213.65;213.65;213.65;0.0;0.0;1;-30.0;30.0;
253;258;0.0022007;0.0115699;0.0118217;337.84;337.84;337.84;0.0;0.0;1;-30.0;30.0;
255;253;0.00516962;0.0285994;0.0136688;196.82;196.82;196.82;0.0;0.0;1;-30.0;30.0;
255;259;0.00467484;0.0315177;0.00583298;206.03;206.03;206.03;0.0;0.0;1;-30.0;30.0;
256;127;0.00734213;0.0428733;0.0498711;212.82;212.82;212.82;0.0;0.0;1;-30.0;30.0;
256;199;1e-07;0.015;0.0;99999.0;99999.0;99999.0;0.0;0.0;1;-30.0;30.0;
256;253;0.00747521;0.0427513;0.00938328;252.48;252.48;252.48;0.0;0.0;1;-30.0;30.0;
257;258;0.00282706;0.0184683;0.00637348;188.97;188.97;188.97;0.0;0.0;1;-30.0;30.0;
258;272;0.007864;0.0492936;0.0167299;190.07;190.07;190.07;0.0;0.0;1;-30.0;30.0;
259;258;0.00148757;0.00886864;0.0686171;197.62;197.62;197.62;0.0;0.0;1;-30.0;30.0;
260;110;0.00555265;0.0279208;0.0170557;190.3;190.3;190.3;0.0;0.0;1;-30.0;30.0;
261;260;0.0117845;0.048387;0.0124691;272.4;272.4;272.4;0.0;0.0;1;-30.0;30.0;
262;26;0.00797486;0.0413554;0.0171391;244.94;244.94;244.94;0.0;0.0;1;-30.0;30.0;
263;262;0.00618428;0.0306474;0.0903401;222.96;222.96;222.96;0.0;0.0;1;-30.0;30.0;
264;323;0.00990689;0.0580426;0.0280558;196.84;196.84;196.84;0.0;0.0;1;-30.0;30.0;
265;61;1e-07;0.022;0.0;99999.0;99999.0;99999.0;0.0;0.0;1;-30.0;30.0;
265;118;0.00976468;0.0452648;0.0320573;221.71;221.71;221.71;0.0;0.0;1;-30.0;30.0;
265;120;0.0113284;0.0599862;0.0119444;237.22;237.22;237.22;0.0;0.0;1;-30.0;30.0;
266;74;0.00944802;0.0474177;0.0209204;259.64;259.64;259.64;0.0;0.0;1;-30.0;30.0;
266;74;0.00944802;0.0474177;0.0209204;259.64;259.64;259.64;0.0;0.0;1;-30.0;30.0;
269;109;0.0130023;0.0648244;0.022019;244.74;244.74;244.74;0.0;0.0;1;-30.0;30.0;
269;197;0.00808209;0.0541968;0.0230938;233.48;233.48;233.48;0.0;0.0;1;-30.0;30.0;
269;241;0.0151243;0.102255;0.038663;190.5;190.5;190.5;0.0;0.0;1;-30.0;30.0;
270;304;0.0111556;0.0838027;0.0209195;234.42;234.42;234.42;0.0;0.0;1;-30.0;30.0;
271;85;0.0112375;0.075637;0.0227131;207.06;207.06;207.06;0.0;0.0;1;-30.0;30.0;
279;445;0.00857919;0.038751;0.0197652;252.98;252.98;252.98;0.0;0.0;1;-30.0;30.0;
282;290;0.000238243;0.00100208;0.0;99999.0;99999.0;99999.0;0.0;0.0;1;-30.0;30.0;
283;182;0.00522151;0.0291578;0.0319451;269.35;269.35;269.35;0.0;0.0;1;-30.0;30.0;
283;182;0.00522151;0.0291578;0.0319451;269.35;269.35;269.35;0.0;0.0;1;-30.0;30.0;
283;224;0.00647754;0.0329659;0.0188678;216.41;216.41;216.41;0.0;0.0;1;-30.0;30.0;
283;346;0.00496981;0.033752;0.0141005;215.7;215.7;215.7;0.0;0.0;1;-30.0;30.0;
283;359;0.0112807;0.0610502;0.0246742;189.35;189.35;189.35;0.0;0.0;1;-30.0;30.0;
290;336;0.000546967;0.00661487;0.319239;1013.91;1013.91;1013.91;0.0;0.0;1;-30.0;30.0;
290;397;0.00156589;0.0197034;0.584176;1362.72;1362.72;1362.72;0.0;0.0;1;-30.0;30.0;
291;227;0.0102001;0.0550615;0.0399772;217.52;217.52;217.52;0.0;0.0;1;-30.0;30.0;
291;293;0.000277674;0.00113775;0.0;99999.0;99999.0;99999.0;0.0;0.0;1;-30.0;30.0;
291;486;0.00862536;0.0467738;0.0409467;304.26;304.26;304.26;0.0;0.0;1;-30.0;30.0;
295;231;0.00041405;0.00459194;0.176305;1264.39;1264.39;1264.39;0.0;0.0;1;-30.0;30.0;
295;389;0.000842003;0.0109231;0.255562;1124.85;1124.85;1124.85;0.0;0.0;1;-30.0;30.0;
303;305;0.000216238;0.00116227;0.0;99999.0;99999.0;99999.0;0.0;0.0;1;-30.0;30.0;
305;454;0.00147007;0.0161904;0.455797;1120.02;1120.02;1120.02;0.0;0.0;1;-30.0;30.0;
306;236;0.00909647;0.0443105;0.0204446;213.5;213.5;213.5;0.0;0.0;1;-30.0;30.0;
307;308;0.000243783;0.00101928;0.0;99999.0;99999.0;99999.0;0.0;0.0;1;-30.0;30.0;
309;429;0.000524347;0.00641311;0.12507;1443.34;1443.34;1443.34;0.0;0.0;1;-30.0;30.0;
309;429;0.000524347;0.00641311;0.12507;1443.34;1443.34;1443.34;0.0;0.0;1;-30.0;30.0;
309;435;0.00057789;0.00773113;0.111558;1749.02;1749.02;1749.02;0.0;0.0;1;-30.0;30.0;
314;460;0.00284337;0.03353;0.530692;1090.95;1090.95;1090.95;0.0;0.0;1;-30.0;30.0;
315;486;0.000891366;0.00620047;0.00357338;270.45;270.45;270.45;0.0;0.0;1;-30.0;30.0;
315;488;0.000846838;0.00524732;0.00176077;273.93;273.93;273.93;0.0;0.0;1;-30.0;30.0;
322;360;0.00392073;0.0457192;0.876636;1081.89;1081.89;1081.89;0.0;0.0;1;-30.0;30.0;
330;331;0.000262545;0.00107587;0.0;99999.0;99999.0;99999.0;0.0;0.0;1;-30.0;30.0;
332;121;0.00159428;0.0205853;0.327303;1048.75;1048.75;1048.75;0.0;0.0;1;-30.0;30.0;
332;454;0.00146382;0.017945;0.410634;1077.53;1077.53;1077.53;0.0;0.0;1;-30.0;30.0;
333;123;0.00408968;0.0210445;0.0525623;275.7;275.7;275.7;0.0;0.0;1;-30.0;30.0;
333;124;0.00233389;0.0131293;0.00626889;260.97;260.97;260.97;0.0;0.0;1;-30.0;30.0;
333;124;0.00233389;0.0131293;0.00626889;260.97;260.97;260.97;0.0;0.0;1;-30.0;30.0;
336;397;0.00139177;0.0169482;0.23371;1419.82;1419.82;1419.82;0.0;0.0;1;-30.0;30.0;
337;359;0.00748705;0.0468268;0.0433188;243.37;243.37;243.37;0.0;0.0;1;-30.0;30.0;
342;130;0.0147359;0.0812897;0.0247527;221.08;221.08;221.08;0.0;0.0;1;-30.0;30.0;
342;294;0.000364389;0.00264717;0.00871279;268.04;268.04;268.04;0.0;0.0;1;-30.0;30.0;
342;294;0.000364389;0.00264717;0.00871279;268.04;268.04;268.04;0.0;0.0;1;-30.0;30.0;
346;182;0.0060196;0.0328492;0.0116299;210.47;210.47;210.47;0.0;0.0;1;-30.0;30.0;
347;349;0.000269385;0.00117548;0.0;99999.0;99999.0;99999.0;0.0;0.0;1;-30.0;30.0;
348;277;0.00302296;0.0175156;0.00468744;191.83;191.83;191.83;0.0;0.0;1;-30.0;30.0;
349;397;0.00142692;0.0184016;0.321924;1161.07;1161.07;1161.07;0.0;0.0;1;-30.0;30.0;
350;332;0.00153637;0.019112;0.448199;1164.99;1164.99;1164.99;0.0;0.0;1;-30.0;30.0;
350;352;0.000205522;0.00104958;0.0;99999.0;99999.0;99999.0;0.0;0.0;1;-30.0;30.0;
350;429;0.00176299;0.024221;0.504029;1225.53;1225.53;1225.53;0.0;0.0;1;-30.0;30.0;
350;435;0.00161779;0.0220227;0.472836;1231.82;1231.82;1231.82;0.0;0.0;1;-30.0;30.0;
351;15;0.00570042;0.038097;0.0166404;297.73;297.73;297.73;0.0;0.0;1;-30.0;30.0;
351;331;0.00799383;0.0592914;0.0117197;265.07;265.07;265.07;0.0;0.0;1;-30.0;30.0;
351;331;0.00799383;0.0592914;0.0117197;265.07;265.07;265.07;0.0;0.0;1;-30.0;30.0;
353;355;0.000218687;0.00118004;0.0;99999.0;99999.0;99999.0;0.0;0.0;1;-30.0;30.0;
355;342;0.00596794;0.0411946;0.0460902;257.41;257.41;257.41;0.0;0.0;1;-30.0;30.0;
355;390;0.000438285;0.0025026;0.0028364;192.83;192.83;192.83;0.0;0.0;1;-30.0;30.0;
356;467;0.00171289;0.00892976;0.00401818;191.82;191.82;191.82;0.0;0.0;1;-30.0;30.0;
357;480;0.00280056;0.0134351;0.00332662;291.7;291.7;291.7;0.0;0.0;1;-30.0;30.0;
357;480;0.00280056;0.0134351;0.00332662;291.7;291.7;291.7;0.0;0.0;1;-30.0;30.0;
357;480;0.00280056;0.0134351;0.00332662;291.7;291.7;291.7;0.0;0.0;1;-30.0;30.0;
358;268;0.00785076;0.0476886;0.0169176;233.04;233.04;233.04;0.0;0.0;1;-30.0;30.0;
358;467;0.00692768;0.0315186;0.0129906;181.78;181.78;181.78;0.0;0.0;1;-30.0;30.0;
359;366;0.0068981;0.0402096;0.0127396;196.5;196.5;196.5;0.0;0.0;1;-30.0;30.0;
359;377;0.012625;0.0936918;0.0239153;228.99;228.99;228.99;0.0;0.0;1;-30.0;30.0;
359;473;0.00222543;0.0129046;0.00606894;247.89;247.89;247.89;0.0;0.0;1;-30.0;30.0;
360;54;0.00100276;0.0120556;0.249915;1072.37;1072.37;1072.37;0.0;0.0;1;-30.0;30.0;
361;34;0.00379348;0.0202895;0.0219664;316.83;316.83;316.83;0.0;0.0;1;-30.0;30.0;
361;34;0.00379348;0.0202895;0.0219664;316.83;316.83;316.83;0.0;0.0;1;-30.0;30.0;
370;373;0.000225361;0.00114438;0.0;99999.0;99999.0;99999.0;0.0;0.0;1;-30.0;30.0;
373;323;0.000257772;0.00169688;0.00189708;244.33;244.33;244.33;0.0;0.0;1;-30.0;30.0;
374;376;0.000205616;0.00119869;0.0;99999.0;99999.0;99999.0;0.0;0.0;1;-30.0;30.0;
376;117;0.00565957;0.0367338;0.0198822;223.49;223.49;223.49;0.0;0.0;1;-30.0;30.0;
377;337;0.00166037;0.0118851;0.00793188;278.49;278.49;278.49;0.0;0.0;1;-30.0;30.0;
382;383;0.000298548;0.00105538;0.0;99999.0;99999.0;99999.0;0.0;0.0;1;-30.0;30.0;
382;385;0.00189251;0.0109271;0.00841737;224.14;224.14;224.14;0.0;0.0;1;-30.0;30.0;
382;488;0.00459748;0.0199241;0.0423444;255.31;255.31;255.31;0.0;0.0;1;-30.0;30.0;
384;385;0.000259286;0.00110193;0.0;99999.0;99999.0;99999.0;0.0;0.0;1;-30.0;30.0;
385;421;0.00389512;0.0241239;0.00906982;220.32;220.32;220.32;0.0;0.0;1;-30.0;30.0;
386;388;0.000221284;0.00109415;0.0;99999.0;99999.0;99999.0;0.0;0.0;1;-30.0;30.0;
387;229;0.0115492;0.0573315;0.0138829;235.12;235.12;235.12;0.0;0.0;1;-30.0;30.0;
388;309;0.000885474;0.00873812;0.148563;1045.47;1045.47;1045.47;0.0;0.0;1;-30.0;30.0;
389;414;0.000913429;0.0104943;0.16381;1144.19;1144.19;1144.19;0.0;0.0;1;-30.0;30.0;
395;397;0.000264513;0.0010891;0.0;99999.0;99999.0;99999.0;0.0;0.0;1;-30.0;30.0;
397;54;0.001546;0.019078;0.340158;1607.07;1607.07;1607.07;0.0;0.0;1;-30.0;30.0;
397;479;0.000739667;0.00965056;0.222224;1676.94;1676.94;1676.94;0.0;0.0;1;-30.0;30.0;
398;260;0.00417165;0.0304097;0.0208194;248.85;248.85;248.85;0.0;0.0;1;-30.0;30.0;
398;423;0.000966411;0.0049338;0.00267166;194.66;194.66;194.66;0.0;0.0;1;-30.0;30.0;
399;12;0.00224359;0.0129772;0.00657691;213.75;213.75;213.75;0.0;0.0;1;-30.0;30.0;
399;500;0.00366597;0.0159435;0.00462133;200.82;200.82;200.82;0.0;0.0;1;-30.0;30.0;
400;403;0.00021407;0.00105349;0.0;99999.0;99999.0;99999.0;0.0;0.0;1;-30.0;30.0;
403;390;0.00390505;0.016682;0.00889956;187.66;187.66;187.66;0.0;0.0;1;-30.0;30.0;
403;415;0.0108099;0.0598869;0.0150022;238.84;238.84;238.84;0.0;0.0;1;-30.0;30.0;
404;396;0.00812376;0.0533399;0.0183921;259.18;259.18;259.18;0.0;0.0;1;-30.0;30.0;
405;190;0.003084;0.0385355;0.635924;1182.98;1182.98;1182.98;0.0;0.0;1;-30.0;30.0;
406;399;0.00202341;0.00976371;0.00208054;268.98;268.98;268.98;0.0;0.0;1;-30.0;30.0;
406;399;0.00202341;0.00976371;0.00208054;268.98;268.98;268.98;0.0;0.0;1;-30.0;30.0;
406;500;0.00468402;0.0252229;0.00876131;194.96;194.96;194.96;0.0;0.0;1;-30.0;30.0;
413;168;0.0101345;0.0604995;0.0233408;160.34;160.34;160.34;0.0;0.0;1;-30.0;30.0;
413;272;0.00891228;0.053729;0.0131931;204.57;204.57;204.57;0.0;0.0;1;-30.0;30.0;
415;21;1e-07;0.05;0.0;99999.0;99999.0;99999.0;0.0;0.0;1;-30.0;30.0;
422;388;0.00142425;0.0173547;0.26896;1073.12;1073.12;1073.12;0.0;0.0;1;-30.0;30.0;
429;498;0.00296972;0.031295;0.492416;1280.79;1280.79;1280.79;0.0;0.0;1;-30.0;30.0;
430;81;0.00192456;0.0121334;0.00727771;300.0;300.0;300.0;0.0;0.0;1;-30.0;30.0;
430;84;0.00448199;0.0263734;0.0203741;279.98;279.98;279.98;0.0;0.0;0;-30.0;30.0;
430;84;0.00448199;0.0263734;0.0203741;279.98;279.98;279.98;0.0;0.0;1;-30.0;30.0;
435;429;0.000293616;0.00373016;0.0483406;1120.52;1120.52;1120.52;0.0;0.0;1;-30.0;30.0;
436;83;0.00278136;0.0150291;0.00518546;226.04;226.04;226.04;0.0;0.0;1;-30.0;30.0;
436;430;0.00463186;0.0213539;0.0107223;288.88;288.88;288.88;0.0;0.0;1;-30.0;30.0;
442;445;0.000221289;0.00117614;0.0;99999.0;99999.0;99999.0;0.0;0.0;1;-30.0;30.0;
445;244;0.00205911;0.00975556;0.0109951;253.31;253.31;253.31;0.0;0.0;1;-30.0;30.0;
446;360;0.00041589;0.00514463;0.234184;1189.37;1189.37;1189.37;0.0;0.0;1;-30.0;30.0;
453;13;0.00430787;0.0243324;0.00718999;226.69;226.69;226.69;0.0;0.0;1;-30.0;30.0;
460;305;0.00130852;0.0176285;0.230534;1211.08;1211.08;1211.08;0.0;0.0;1;-30.0;30.0;
461;7;0.00348701;0.0233525;0.0297729;311.15;311.15;311.15;0.0;0.0;1;-30.0;30.0;
465;467;0.00028339;0.00117069;0.0;99999.0;99999.0;99999.0;0.0;0.0;1;-30.0;30.0;
467;188;0.00703121;0.0532559;0.0407168;187.56;187.56;187.56;0.0;0.0;1;-30.0;30.0;
468;121;0.000955644;0.0128413;0.261586;1089.73;1089.73;1089.73;0.0;0.0;1;-30.0;30.0;
469;306;0.00422112;0.0229097;0.0438245;278.22;278.22;278.22;0.0;0.0;1;-30.0;30.0;
472;473;0.000234911;0.00106703;0.0;99999.0;99999.0;99999.0;0.0;0.0;1;-30.0;30.0;
473;377;0.00773654;0.0559391;0.0348232;236.79;236.79;236.79;0.0;0.0;1;-30.0;30.0;
474;477;0.000293541;0.00115735;0.0;99999.0;99999.0;99999.0;0.0;0.0;1;-30.0;30.0;
478;7;0.0213225;0.0914343;0.0278942;258.33;258.33;258.33;0.0;0.0;1;-30.0;30.0;
478;242;0.00771352;0.0314984;0.0101261;293.25;293.25;293.25;0.0;0.0;1;-30.0;30.0;
478;480;0.00906359;0.052802;0.0266087;244.07;244.07;244.07;0.0;0.0;1;-30.0;30.0;
479;54;0.00104602;0.014046;0.350355;1207.95;1207.95;1207.95;0.0;0.0;1;-30.0;30.0;
487;242;0.00955583;0.0567222;0.00974044;205.85;205.85;205.85;0.0;0.0;1;-30.0;30.0;
487;441;0.00861538;0.0500581;0.0135023;212.47;212.47;212.47;0.0;0.0;1;-30.0;30.0;
488;217;0.00386786;0.0223528;0.0133963;251.11;251.11;251.11;0.0;0.0;1;-30.0;30.0;
488;486;0.00065584;0.00316221;0.00147663;240.65;240.65;240.65;0.0;0.0;1;-30.0;30.0;
489;89;0.0042275;0.0202284;0.0108331;267.29;267.29;267.29;0.0;0.0;1;-30.0;30.0;
489;91;0.0040245;0.0220514;0.00641127;262.37;262.37;262.37;0.0;0.0;1;-30.0;30.0;
490;491;0.000283352;0.00110546;0.0;99999.0;99999.0;99999.0;0.0;0.0;1;-30.0;30.0;
492;495;0.000223082;0.00118991;0.0;99999.0;99999.0;99999.0;0.0;0.0;1;-30.0;30.0;
495;234;0.00300018;0.0163325;0.0100254;240.29;240.29;240.29;0.0;0.0;1;-30.0;30.0;
496;498;0.000260461;0.00102313;0.0;99999.0;99999.0;99999.0;0.0;0.0;1;-30.0;30.0;
497;96;0.00550502;0.0392586;0.00859406;214.92;214.92;214.92;0.0;0.0;1;-30.0;30.0;
497;158;0.00972333;0.0560053;0.0120326;264.27;264.27;264.27;0.0;0.0;1;-30.0;30.0;
498;360;0.00101516;0.0127879;0.280018;1247.99;1247.99;1247.99;0.0;0.0;1;-30.0;30.0;
498;446;0.00106712;0.0139619;0.222125;1135.38;1135.38;1135.38;0.0;0.0;1;-30.0;30.0;
499;500;0.000251066;0.001098;0.0;99999.0;99999.0;99999.0;0.0;0.0;1;-30.0;30.0;
21;20;0.000536254;0.0293108;0.0;390.5;390.5;390.5;1.0125;0.0;1;-30.0;30.0;
26;25;0.000505881;0.0243569;0.0;506.92;506.92;506.92;1.03125;0.0;1;-30.0;30.0;
42;41;0.000541271;0.0336934;0.0;461.08;461.08;461.08;1.1;0.0;1;-30.0;30.0;
42;41;0.000541271;0.0336934;0.0;461.08;461.08;461.08;1.1;0.0;1;-30.0;30.0;
42;41;0.000541271;0.0336934;0.0;461.08;461.08;461.08;1.1;0.0;1;-30.0;30.0;
53;52;0.000502968;0.0277845;0.0;628.27;628.27;628.27;1.0;0.0;1;-30.0;30.0;
53;52;0.000502968;0.0277845;0.0;628.27;628.27;628.27;1.0;0.0;1;-30.0;30.0;
53;52;0.000502968;0.0277845;0.0;628.27;628.27;628.27;1.0;0.0;1;-30.0;30.0;
91;90;0.000438011;0.0296883;0.0;509.59;509.59;509.59;1.0;0.0;1;-30.0;30.0;
91;90;0.000438011;0.0296883;0.0;509.59;509.59;509.59;1.0;0.0;0;-30.0;30.0;
91;90;0.000438011;0.0296883;0.0;509.59;509.59;509.59;1.0;0.0;1;-30.0;30.0;
98;97;0.000525414;0.0325224;0.0;362.58;362.58;362.58;1.03125;0.0;1;-30.0;30.0;
107;106;0.000611845;0.0360405;0.0;478.65;478.65;478.65;1.03125;0.0;1;-30.0;30.0;
107;106;0.000611845;0.0360405;0.0;478.65;478.65;478.65;1.03125;0.0;1;-30.0;30.0;
107;106;0.000611845;0.0360405;0.0;478.65;478.65;478.65;1.03125;0.0;1;-30.0;30.0;
120;119;0.000693805;0.0308972;0.0;409.0;409.0;409.0;1.04375;0.0;1;-30.0;30.0;
136;135;0.000343226;0.0245211;0.0;439.36;439.36;439.36;1.0375;0.0;1;-30.0;30.0;
136;135;0.000343226;0.0245211;0.0;439.36;439.36;439.36;1.0375;0.0;1;-30.0;30.0;
152;151;0.000448214;0.0240375;0.0;555.68;555.68;555.68;1.03125;0.0;1;-30.0;30.0;
152;151;0.000448214;0.0240375;0.0;555.68;555.68;555.68;1.03125;0.0;1;-30.0;30.0;
152;151;0.000448214;0.0240375;0.0;555.68;555.68;555.68;1.03125;0.0;1;-30.0;30.0;
191;190;0.000547832;0.0347294;0.0;491.96;491.96;491.96;1.04375;0.0;1;-30.0;30.0;
191;190;0.000547832;0.0347294;0.0;491.96;491.96;491.96;1.04375;0.0;1;-30.0;30.0;
191;190;0.000547832;0.0347294;0.0;491.96;491.96;491.96;1.04375;0.0;1;-30.0;30.0;
232;231;0.000468765;0.0188084;0.0;651.35;651.35;651.35;1.0375;0.0;1;-30.0;30.0;
253;252;0.000428145;0.023393;0.0;496.41;496.41;496.41;1.05625;0.0;1;-30.0;30.0;
253;252;0.000428145;0.023393;0.0;496.41;496.41;496.41;1.05625;0.0;1;-30.0;30.0;
253;252;0.000428145;0.023393;0.0;496.41;496.41;496.41;1.05625;0.0;1;-30.0;30.0;
273;275;0.000202221;0.0140924;0.0;1154.66;1154.66;1154.66;1.05;0.0;1;-30.0;30.0;
273;276;0.000217879;0.0120592;0.0;1154.66;1154.66;1154.66;1.05;0.0;1;-30.0;30.0;
274;273;0.000420564;0.0262256;0.0;620.34;620.34;620.34;1.0;0.0;1;-30.0;30.0;
278;280;0.000479866;0.0306603;0.0;321.49;321.49;321.49;1.0125;0.0;1;-30.0;30.0;
278;281;0.00031103;0.0219887;0.0;319.26;319.26;319.26;1.00625;0.0;1;-30.0;30.0;
279;278;0.000366522;0.019924;0.0;522.19;522.19;522.19;1.0;0.0;1;-30.0;30.0;
279;278;0.000366522;0.019924;0.0;522.19;522.19;522.19;1.0;0.0;1;-30.0;30.0;
279;278;0.000366522;0.019924;0.0;522.19;522.19;522.19;1.0;0.0;1;-30.0;30.0;
282;284;0.000373065;0.0260709;0.0;379.67;379.67;379.67;1.00625;0.0;1;-30.0;30.0;
282;285;0.000428104;0.0310478;0.0;376.33;376.33;376.33;1.00625;0.0;1;-30.0;30.0;
282;286;0.000520688;0.0282001;0.0;370.2;370.2;370.2;1.00625;0.0;1;-30.0;30.0;
282;287;0.000483108;0.0327549;0.0;368.66;368.66;368.66;1.00625;0.0;1;-30.0;30.0;
282;288;0.000526109;0.0331453;0.0;367.71;367.71;367.71;1.00625;0.0;1;-30.0;30.0;
282;289;0.000347274;0.0252107;0.0;367.33;367.33;367.33;1.00625;0.0;1;-30.0;30.0;
283;282;0.000525978;0.0318151;0.0;471.3;471.3;471.3;1.01875;0.0;1;-30.0;30.0;
283;282;0.000525978;0.0318151;0.0;471.3;471.3;471.3;1.01875;0.0;1;-30.0;30.0;
283;282;0.000525978;0.0318151;0.0;471.3;471.3;471.3;1.01875;0.0;1;-30.0;30.0;
291;292;0.35543;11.2968;0.0;1.3;1.3;1.3;1.0;0.0;1;-30.0;30.0;
295;297;0.000379185;0.0247737;0.0;334.88;334.88;334.88;0.98125;0.0;1;-30.0;30.0;
295;298;0.000716326;0.0379339;0.0;334.69;334.69;334.69;0.98125;0.0;1;-30.0;30.0;
295;299;0.000304059;0.0206591;0.0;334.28;334.28;334.28;0.98125;0.0;1;-30.0;30.0;
295;300;0.00155879;0.0573822;0.0;332.41;332.41;332.41;0.98125;0.0;1;-30.0;30.0;
295;301;0.000556456;0.0323544;0.0;331.98;331.98;331.98;0.98125;0.0;1;-30.0;30.0;
295;302;0.000745624;0.044177;0.0;323.04;323.04;323.04;0.98125;0.0;1;-30.0;30.0;
296;295;0.000193487;0.0143159;0.0;544.49;544.49;544.49;1.0125;0.0;1;-30.0;30.0;
296;295;0.000193487;0.0143159;0.0;544.49;544.49;544.49;1.0125;0.0;1;-30.0;30.0;
296;295;0.000193487;0.0143159;0.0;544.49;544.49;544.49;1.0125;0.0;1;-30.0;30.0;
304;303;0.000325823;0.0169846;0.0;458.34;458.34;458.34;1.0;0.0;1;-30.0;30.0;
309;311;7.42139e-05;0.00565391;0.0;1514.07;1514.07;1514.07;1.05;0.0;1;-30.0;30.0;
309;312;7.42648e-05;0.00477232;0.0;1514.07;1514.07;1514.07;1.05;0.0;1;-30.0;30.0;
309;313;0.000116301;0.00893914;0.0;1514.07;1514.07;1514.07;1.05;0.0;1;-30.0;30.0;
310;309;0.000378438;0.0230997;0.0;510.8;510.8;510.8;0.9875;0.0;1;-30.0;30.0;
310;309;0.000378438;0.0230997;0.0;510.8;510.8;510.8;0.9875;0.0;1;-30.0;30.0;
310;309;0.000378438;0.0230997;0.0;510.8;510.8;510.8;0.9875;0.0;1;-30.0;30.0;
314;316;0.000895022;0.0359994;0.0;464.18;464.18;464.18;1.0;0.0;1;-30.0;30.0;
314;317;0.000445532;0.0275654;0.0;458.14;458.14;458.14;1.0;0.0;1;-30.0;30.0;
314;318;0.000625542;0.0256149;0.0;455.99;455.99;455.99;1.0;0.0;1;-30.0;30.0;
314;319;0.000342057;0.0201242;0.0;454.62;454.62;454.62;1.0;0.0;1;-30.0;30.0;
314;320;0.000536642;0.0307448;0.0;448.95;448.95;448.95;1.0;0.0;1;-30.0;30.0;
314;321;0.000523068;0.0259737;0.0;448.8;448.8;448.8;1.0;0.0;1;-30.0;30.0;
315;314;0.00074037;0.0388174;0.0;542.1;542.1;542.1;1.01875;0.0;1;-30.0;30.0;
315;314;0.00074037;0.0388174;0.0;542.1;542.1;542.1;1.01875;0.0;1;-30.0;30.0;
315;314;0.00074037;0.0388174;0.0;542.1;542.1;542.1;1.01875;0.0;1;-30.0;30.0;
322;324;0.000631398;0.0400234;0.0;298.76;298.76;298.76;1.0;0.0;1;-30.0;30.0;
322;325;0.000759541;0.0412573;0.0;297.35;297.35;297.35;1.0;0.0;1;-30.0;30.0;
322;326;0.000829004;0.0525703;0.0;295.53;295.53;295.53;1.0;0.0;1;-30.0;30.0;
322;327;0.000777304;0.0484577;0.0;277.01;277.01;277.01;1.0;0.0;1;-30.0;30.0;
322;328;0.00056804;0.03834;0.0;275.26;275.26;275.26;1.0;0.0;1;-30.0;30.0;
322;329;0.000614253;0.0425834;0.0;265.86;265.86;265.86;1.0;0.0;1;-30.0;30.0;
323;322;0.000841043;0.0390368;0.0;346.56;346.56;346.56;1.025;0.0;1;-30.0;30.0;
332;334;0.00167281;0.0957987;0.0;170.24;170.24;170.24;1.0;0.0;1;-30.0;30.0;
332;335;0.00134301;0.0787655;0.0;154.25;154.25;154.25;1.0;0.0;1;-30.0;30.0;
333;332;0.000483225;0.0284723;0.0;547.14;547.14;547.14;1.0;0.0;1;-30.0;30.0;
333;332;0.000483225;0.0284723;0.0;547.14;547.14;547.14;1.0;0.0;1;-30.0;30.0;
333;332;0.000483225;0.0284723;0.0;547.14;547.14;547.14;1.0;0.0;1;-30.0;30.0;
336;338;0.0006169;0.0300775;0.0;406.98;406.98;406.98;1.0;0.0;1;-30.0;30.0;
336;339;0.000375045;0.0281773;0.0;403.31;403.31;403.31;1.0;0.0;1;-30.0;30.0;
336;340;0.000425368;0.0313458;0.0;402.98;402.98;402.98;1.0;0.0;1;-30.0;30.0;
336;341;0.000585813;0.0398156;0.0;398.26;398.26;398.26;1.0;0.0;1;-30.0;30.0;
337;336;0.00045459;0.0246348;0.0;318.58;318.58;318.58;1.0125;0.0;1;-30.0;30.0;
342;343;0.00256944;0.0579654;0.0;233.13;233.13;233.13;1.0;0.0;1;-30.0;30.0;
342;344;0.00212206;0.0674639;0.0;233.13;233.13;233.13;1.0;0.0;1;-30.0;30.0;
342;345;0.00208414;0.0517834;0.0;233.13;233.13;233.13;1.0;0.0;1;-30.0;30.0;
348;347;0.000367495;0.0216598;0.0;367.28;367.28;367.28;1.0375;0.0;1;-30.0;30.0;
351;350;0.000655327;0.0282606;0.0;497.16;497.16;497.16;1.0;0.0;1;-30.0;30.0;
351;350;0.000655327;0.0282606;0.0;497.16;497.16;497.16;1.0;0.0;1;-30.0;30.0;
351;350;0.000655327;0.0282606;0.0;497.16;497.16;497.16;1.0;0.0;1;-30.0;30.0;
353;354;0.0037841;0.092798;0.0;143.0;143.0;143.0;1.0;0.0;1;-30.0;30.0;
360;362;0.000156351;0.0072342;0.0;917.15;917.15;917.15;1.0;0.0;1;-30.0;30.0;
360;363;0.000259699;0.0141725;0.0;917.15;917.15;917.15;1.0;0.0;1;-30.0;30.0;
360;364;0.000272146;0.0198633;0.0;917.15;917.15;917.15;1.0;0.0;1;-30.0;30.0;
360;365;0.000447041;0.0178606;0.0;917.15;917.15;917.15;1.0;0.0;1;-30.0;30.0;
361;360;0.000300251;0.0204296;0.0;587.59;587.59;587.59;1.0;0.0;1;-30.0;30.0;
361;360;0.000300251;0.0204296;0.0;587.59;587.59;587.59;1.0;0.0;1;-30.0;30.0;
361;360;0.000300251;0.0204296;0.0;587.59;587.59;587.59;1.0;0.0;1;-30.0;30.0;
366;367;0.00973151;0.278789;0.0;26.65;26.65;26.65;1.0;0.0;1;-30.0;30.0;
366;368;0.0062091;0.220695;0.0;53.3;53.3;53.3;1.0;0.0;1;-30.0;30.0;
366;369;0.0199066;0.670544;0.0;26.65;26.65;26.65;1.0625;0.0;1;-30.0;30.0;
370;371;0.00121619;0.0353293;0.0;369.46;369.46;369.46;1.0;0.0;1;-30.0;30.0;
370;372;0.00136545;0.0376173;0.0;369.46;369.46;369.46;1.0;0.0;1;-30.0;30.0;
374;375;0.00778775;0.261743;0.0;38.67;38.67;38.67;1.0;0.0;1;-30.0;30.0;
377;378;0.000973146;0.0271225;0.0;301.31;301.31;301.31;1.0375;0.0;1;-30.0;30.0;
377;379;0.0023813;0.0522033;0.0;301.31;301.31;301.31;1.0375;0.0;1;-30.0;30.0;
377;380;0.00140456;0.0427291;0.0;301.31;301.31;301.31;1.0375;0.0;1;-30.0;30.0;
377;381;0.0012163;0.0355031;0.0;301.31;301.31;301.31;1.0375;0.0;1;-30.0;30.0;
387;386;0.00033322;0.022031;0.0;389.55;389.55;389.55;1.0125;0.0;1;-30.0;30.0;
389;391;0.00028731;0.0204018;0.0;318.16;318.16;318.16;1.075;0.0;1;-30.0;30.0;
389;392;0.000625859;0.0329065;0.0;314.04;314.04;314.04;1.08125;0.0;1;-30.0;30.0;
389;393;0.000638056;0.0360591;0.0;313.73;313.73;313.73;1.0875;0.0;1;-30.0;30.0;
389;394;0.000617364;0.0389483;0.0;309.38;309.38;309.38;1.0875;0.0;1;-30.0;30.0;
390;389;0.000382867;0.0282289;0.0;311.38;311.38;311.38;1.0;0.0;1;-30.0;30.0;
396;395;0.000250247;0.0162734;0.0;338.87;338.87;338.87;1.03125;0.0;1;-30.0;30.0;
400;401;0.00320427;0.0964919;0.0;81.63;81.63;81.63;1.0;0.0;1;-30.0;30.0;
400;402;0.00430186;0.140434;0.0;79.62;79.62;79.62;1.0;0.0;1;-30.0;30.0;
405;407;0.00041892;0.0308071;0.0;265.3;265.3;265.3;1.0;0.0;1;-30.0;30.0;
405;408;0.00083897;0.0423468;0.0;262.28;262.28;262.28;1.0;0.0;1;-30.0;30.0;
405;409;0.000971538;0.0535648;0.0;256.22;256.22;256.22;1.0;0.0;1;-30.0;30.0;
405;410;0.000860625;0.0516558;0.0;250.09;250.09;250.09;1.0;0.0;1;-30.0;30.0;
405;411;0.000997296;0.0638117;0.0;224.22;224.22;224.22;1.0;0.0;1;-30.0;30.0;
405;412;0.000796356;0.0544798;0.0;215.78;215.78;215.78;1.0;0.0;1;-30.0;30.0;
406;405;0.000607729;0.0348525;0.0;459.57;459.57;459.57;1.0;0.0;1;-30.0;30.0;
406;405;0.000607729;0.0348525;0.0;459.57;459.57;459.57;1.0;0.0;1;-30.0;30.0;
406;405;0.000607729;0.0348525;0.0;459.57;459.57;459.57;1.0;0.0;1;-30.0;30.0;
414;416;0.000328892;0.0205281;0.0;489.82;489.82;489.82;1.04375;0.0;1;-30.0;30.0;
414;417;0.000187472;0.0121387;0.0;489.77;489.77;489.77;1.0;0.0;1;-30.0;30.0;
414;418;0.000388416;0.022286;0.0;485.07;485.07;485.07;1.0;0.0;1;-30.0;30.0;
414;419;0.000397994;0.0246792;0.0;479.76;479.76;479.76;1.04375;0.0;1;-30.0;30.0;
414;420;0.000599327;0.0284749;0.0;478.01;478.01;478.01;1.04375;0.0;1;-30.0;30.0;
415;414;0.000451633;0.0315432;0.0;342.66;342.66;342.66;1.01875;0.0;1;-30.0;30.0;
422;424;0.000374656;0.0288049;0.0;425.79;425.79;425.79;0.9875;0.0;1;-30.0;30.0;
422;425;0.000397079;0.0297391;0.0;420.15;420.15;420.15;0.9875;0.0;1;-30.0;30.0;
422;426;0.000457733;0.0303601;0.0;410.73;410.73;410.73;1.0;0.0;1;-30.0;30.0;
422;427;0.000372813;0.0254212;0.0;408.41;408.41;408.41;0.9875;0.0;1;-30.0;30.0;
422;428;0.000705582;0.034346;0.0;408.19;408.19;408.19;0.9875;0.0;1;-30.0;30.0;
423;422;0.000384533;0.0274698;0.0;353.49;353.49;353.49;1.0;0.0;1;-30.0;30.0;
429;431;0.000636114;0.0356112;0.0;387.12;387.12;387.12;1.05625;0.0;1;-30.0;30.0;
429;432;0.00061928;0.0294575;0.0;387.07;387.07;387.07;1.05625;0.0;1;-30.0;30.0;
429;433;0.000360841;0.021624;0.0;384.73;384.73;384.73;1.05;0.0;1;-30.0;30.0;
429;434;0.000390259;0.0263657;0.0;380.48;380.48;380.48;1.05625;0.0;1;-30.0;30.0;
430;429;0.000517158;0.0260834;0.0;562.02;562.02;562.02;1.0;0.0;1;-30.0;30.0;
430;429;0.000517158;0.0260834;0.0;562.02;562.02;562.02;1.0;0.0;1;-30.0;30.0;
430;429;0.000517158;0.0260834;0.0;562.02;562.02;562.02;1.0;0.0;1;-30.0;30.0;
435;437;0.000403932;0.0317548;0.0;397.18;397.18;397.18;1.08125;0.0;1;-30.0;30.0;
435;438;0.000370298;0.0271126;0.0;396.44;396.44;396.44;1.08125;0.0;1;-30.0;30.0;
435;439;0.000611676;0.0328839;0.0;394.96;394.96;394.96;1.0875;0.0;1;-30.0;30.0;
435;440;0.000451306;0.0331002;0.0;389.79;389.79;389.79;1.0875;0.0;1;-30.0;30.0;
436;435;0.000398002;0.0225429;0.0;572.43;572.43;572.43;1.0;0.0;1;-30.0;30.0;
436;435;0.000398002;0.0225429;0.0;572.43;572.43;572.43;1.0;0.0;1;-30.0;30.0;
436;435;0.000398002;0.0225429;0.0;572.43;572.43;572.43;1.0;0.0;1;-30.0;30.0;
442;443;0.0867196;2.26916;0.0;7.8;7.8;7.8;1.0;0.0;1;-30.0;30.0;
442;444;0.0591784;2.10181;0.0;7.8;7.8;7.8;1.01875;0.0;1;-30.0;30.0;
446;448;0.000566023;0.0321282;0.0;448.62;448.62;448.62;1.0;0.0;1;-30.0;30.0;
446;449;0.000634471;0.0322695;0.0;445.75;445.75;445.75;1.0;0.0;1;-30.0;30.0;
446;450;0.000601573;0.0324325;0.0;440.53;440.53;440.53;1.075;0.0;1;-30.0;30.0;
446;451;0.000550115;0.0295676;0.0;440.38;440.38;440.38;1.06875;0.0;1;-30.0;30.0;
446;452;0.000410283;0.0268188;0.0;439.43;439.43;439.43;1.06875;0.0;1;-30.0;30.0;
447;446;0.000473004;0.0270653;0.0;367.94;367.94;367.94;1.025;0.0;1;-30.0;30.0;
454;456;0.000848903;0.0505189;0.0;361.49;361.49;361.49;1.08125;0.0;1;-30.0;30.0;
454;457;0.000467442;0.0257805;0.0;361.03;361.03;361.03;1.0625;0.0;1;-30.0;30.0;
454;458;0.000912461;0.0433306;0.0;360.57;360.57;360.57;1.075;0.0;1;-30.0;30.0;
454;459;0.000531627;0.0324517;0.0;339.59;339.59;339.59;1.06875;0.0;1;-30.0;30.0;
455;454;0.000367379;0.021975;0.0;582.29;582.29;582.29;1.0125;0.0;1;-30.0;30.0;
455;454;0.000367379;0.021975;0.0;582.29;582.29;582.29;1.0125;0.0;1;-30.0;30.0;
455;454;0.000367379;0.021975;0.0;582.29;582.29;582.29;1.0125;0.0;1;-30.0;30.0;
460;462;0.000447913;0.0301375;0.0;434.07;434.07;434.07;1.04375;0.0;1;-30.0;30.0;
460;463;0.000412705;0.0269158;0.0;429.97;429.97;429.97;1.04375;0.0;1;-30.0;30.0;
460;464;0.000525174;0.0298652;0.0;426.71;426.71;426.71;1.04375;0.0;1;-30.0;30.0;
461;460;0.000576084;0.0326432;0.0;473.41;473.41;473.41;1.00625;0.0;1;-30.0;30.0;
465;466;0.00519083;0.160302;0.0;67.87;67.87;67.87;1.0;0.0;1;-30.0;30.0;
468;470;0.000274786;0.0187972;0.0;731.25;731.25;731.25;1.0;0.0;1;-30.0;30.0;
468;471;0.000254801;0.0158162;0.0;731.25;731.25;731.25;1.0;0.0;1;-30.0;30.0;
469;468;0.000424583;0.0249647;0.0;380.87;380.87;380.87;1.025;0.0;1;-30.0;30.0;
474;475;0.00358362;0.119106;0.0;75.92;75.92;75.92;1.0;0.0;1;-30.0;30.0;
474;476;0.00993187;0.305499;0.0;45.12;45.12;45.12;1.0;0.0;1;-30.0;30.0;
479;481;0.000374809;0.023707;0.0;523.33;523.33;523.33;1.0;0.0;1;-30.0;30.0;
479;482;0.000462701;0.0279948;0.0;523.33;523.33;523.33;1.0;0.0;1;-30.0;30.0;
479;483;0.000374996;0.0214192;0.0;523.33;523.33;523.33;1.0;0.0;1;-30.0;30.0;
479;484;0.000462963;0.0284119;0.0;523.33;523.33;523.33;1.0;0.0;1;-30.0;30.0;
479;485;0.000279259;0.0206554;0.0;523.33;523.33;523.33;1.0;0.0;1;-30.0;30.0;
480;479;0.00047645;0.0299622;0.0;565.77;565.77;565.77;1.05625;0.0;1;-30.0;30.0;
480;479;0.00047645;0.0299622;0.0;565.77;565.77;565.77;1.05625;0.0;1;-30.0;30.0;
480;479;0.00047645;0.0299622;0.0;565.77;565.77;565.77;1.05625;0.0;1;-30.0;30.0;
492;493;0.0022567;0.058447;0.0;182.0;182.0;182.0;1.0;0.0;1;-30.0;30.0;
492;494;0.00107207;0.0353021;0.0;182.0;182.0;182.0;1.0;0.0;1;-30.0;30.0;
497;496;0.000512239;0.0372062;0.0;335.52;335.52;335.52;1.05;0.0;1;-30.0;30.0;
